@<TRIPOS>MOLECULE
Naphthalene_charges.xyz
 18 19 0 0 0
SMALL
GASTEIGER

@<TRIPOS>ATOM
      1 C           0.0000    0.7087   -2.4373 C.ar    1  LIG1       -0.0612
      2 C          -0.0000   -0.7087   -2.4373 C.ar    1  LIG1       -0.0612
      3 C          -0.0000   -1.4046   -1.2452 C.ar    1  LIG1       -0.0540
      4 C          -0.0000   -0.7191    0.0000 C.ar    1  LIG1       -0.0179
      5 C           0.0000    0.7191    0.0000 C.ar    1  LIG1       -0.0179
      6 C           0.0000    1.4046   -1.2452 C.ar    1  LIG1       -0.0540
      7 C          -0.0000   -1.4046    1.2452 C.ar    1  LIG1       -0.0540
      8 C          -0.0000   -0.7087    2.4373 C.ar    1  LIG1       -0.0612
      9 C           0.0000    0.7087    2.4373 C.ar    1  LIG1       -0.0612
     10 C           0.0000    1.4046    1.2452 C.ar    1  LIG1       -0.0540
     11 H          -0.0000    1.2499   -3.3859 H       1  LIG1        0.0618
     12 H           0.0000    2.4980   -1.2442 H       1  LIG1        0.0624
     13 H           0.0000   -1.2499    3.3859 H       1  LIG1        0.0618
     14 H           0.0000   -1.2499   -3.3859 H       1  LIG1        0.0618
     15 H          -0.0000   -2.4980    1.2442 H       1  LIG1        0.0624
     16 H          -0.0000   -2.4980   -1.2442 H       1  LIG1        0.0624
     17 H           0.0000    2.4980    1.2442 H       1  LIG1        0.0624
     18 H          -0.0000    1.2499    3.3859 H       1  LIG1        0.0618
@<TRIPOS>BOND
     1    11     1    1
     2    14     2    1
     3     2     1   ar
     4     2     3   ar
     5     1     6   ar
     6     3    16    1
     7     3     4   ar
     8     6    12    1
     9     6     5   ar
    10     4     5   ar
    11     4     7   ar
    12     5    10   ar
    13    17    10    1
    14    15     7    1
    15    10     9   ar
    16     7     8   ar
    17     9     8   ar
    18     9    18    1
    19     8    13    1
